tests/corpus/controls/fuse/fuse_blow_asym.dss
// Fuse, ASYMMETRIC blow: a single-line-to-ground fault on phase 2 melts ONLY
// that phase's fuse link (default tlink curve) — the per-phase `State` array
// probe pins the mixed [closed/open] pattern, the event log the PHASE n BLOWN
// action. Compared per step: full model + per-phase State/Normal probes +
// event log.
clear
Set DefaultBaseFrequency=60

new circuit.prot basekv=12.47 phases=3 bus1=src mvasc3=20000 mvasc1=21000
new linecode.lc nphases=3 r1=0.3 x1=0.6 r0=0.7 x0=1.9 c1=0 c0=0 units=mi
new line.feed bus1=src bus2=mid linecode=lc length=1 units=mi
new line.lat bus1=mid bus2=loadb linecode=lc length=1 units=mi
new load.l bus1=loadb phases=3 kv=12.47 kw=500 pf=0.95 model=1

new fuse.fz monitoredobj=line.feed monitoredterm=1
~ switchedobj=line.feed switchedterm=1 ratedcurrent=40

! SLG fault on phase 2 only -> only the phase-2 link blows.
new fault.f bus1=loadb.2 phases=1 ontime=0.1 r=0.5 temporary=no

set voltagebases=[12.47]
calcvoltagebases
set mode=duty stepsize=0.1 number=1 controlmode=time
